<?xml version="1.0" encoding="UTF-8"?>
<routes xmlns:xsi="http://www.w3.org/2001/XMLSchema-instance" xsi:noNamespaceSchemaLocation="http://sumo.dlr.de/xsd/routes_file.xsd">
<vType vClass="bus" accel="1.2" color="red" decel="3.5" guiShape="bus" id="bus" length="12" maxSpeed="70" sigma="0.7" width="2.5"/>
<vType vClass="rail_urban" id="rail_urban"/>
	<trip id="11_47581064" type="bus" depart="05:00:50" from="-6415868#6" to="460423550#0">
		<stop busStop="11080" until="05:01:00"/>
		<stop busStop="11090" until="05:02:14"/>
		<stop busStop="11100" until="05:02:57"/>
		<stop busStop="1085" until="05:05:00"/>
	</trip>

	<trip id="550_44581424" type="bus" depart="05:00:50" from="679642593#2" to="462696719#1">
		<stop busStop="1215" until="05:01:00"/>
		<stop busStop="1230" until="05:01:49"/>
		<stop busStop="320" until="05:04:00"/>
		<stop busStop="360" until="05:05:56"/>
		<stop busStop="375" until="05:07:00"/>
	</trip>

	<trip id="Link_light_rail_52084613" type="rail_urban" depart="05:00:50" from="164665655#4" to="144691574#6.2193">
		<stop busStop="99260" until="05:01:00"/>
		<stop busStop="621" until="05:03:00"/>
		<stop busStop="532" until="05:06:00"/>
		<stop busStop="565" until="05:08:00"/>
		<stop busStop="1121" until="05:10:00"/>
		<stop busStop="99603" until="05:12:00"/>
	</trip>

	<trip id="1_49195113" type="bus" depart="05:01:50" from="gneE402" to="428248874#5">
		<stop busStop="1530" until="05:02:00"/>
		<stop busStop="1610" until="05:03:57"/>
		<stop busStop="538" until="05:05:57"/>
		<stop busStop="558" until="05:08:04"/>
		<stop busStop="575" until="05:10:00"/>
		<stop busStop="600" until="05:12:03"/>
		<stop busStop="605" until="05:13:34"/>
		<stop busStop="1690" until="05:14:48"/>
		<stop busStop="2320" until="05:16:49"/>
		<stop busStop="2330" until="05:18:00"/>
		<stop busStop="2360" until="05:20:00"/>
	</trip>

	<trip id="70_49193805" type="bus" depart="05:01:50" from="gneE173" to="428341107">
		<stop busStop="1610" until="05:02:00"/>
		<stop busStop="538" until="05:03:39"/>
		<stop busStop="558" until="05:05:24"/>
		<stop busStop="575" until="05:07:00"/>
		<stop busStop="880" until="05:11:00"/>
		<stop busStop="900" until="05:13:20"/>
		<stop busStop="10280" until="05:15:00"/>
		<stop busStop="10305" until="05:16:23"/>
	</trip>

	<trip id="120_47582989" type="bus" depart="05:02:41" from="gneE487" to="399134509#1">
		<stop busStop="1565" until="05:02:51"/>
		<stop busStop="548" until="05:04:00"/>
		<stop busStop="570" until="05:06:00"/>
		<stop busStop="590" until="05:07:34"/>
		<stop busStop="600" until="05:09:00"/>
	</trip>

	<trip id="2_49192846" type="bus" depart="05:02:50" from="337673342#2" to="428248874#5">
		<stop busStop="3032" until="05:03:00"/>
		<stop busStop="3033" until="05:03:31"/>
		<stop busStop="3034" until="05:04:15"/>
		<stop busStop="3035" until="05:04:46"/>
		<stop busStop="3036" until="05:05:17"/>
		<stop busStop="3037" until="05:06:00"/>
		<stop busStop="1260" until="05:07:11"/>
		<stop busStop="1250" until="05:10:00"/>
		<stop busStop="575" until="05:13:00"/>
		<stop busStop="600" until="05:15:03"/>
		<stop busStop="605" until="05:16:34"/>
		<stop busStop="1690" until="05:17:48"/>
		<stop busStop="2320" until="05:19:49"/>
		<stop busStop="2330" until="05:21:00"/>
		<stop busStop="2360" until="05:22:55"/>
	</trip>

	<trip id="E_Line_49194345" type="bus" depart="05:03:24" from="367069126" to="452330584">
		<stop busStop="6176" until="05:03:34"/>
		<stop busStop="7430" until="05:04:32"/>
		<stop busStop="400" until="05:05:29"/>
		<stop busStop="420" until="05:06:12"/>
		<stop busStop="431" until="05:07:00"/>
		<stop busStop="468" until="05:09:27"/>
		<stop busStop="490" until="05:11:36"/>
		<stop busStop="515" until="05:14:00"/>
	</trip>

	<trip id="545_35507511" type="bus" depart="05:03:50" from="623761323" to="621426648">
		<stop busStop="21765" until="05:04:00"/>
		<stop busStop="620" until="05:07:00"/>
		<stop busStop="640" until="05:07:57"/>
		<stop busStop="660" until="05:08:44"/>
		<stop busStop="700" until="05:10:00"/>
		<stop busStop="1050" until="05:13:31"/>
	</trip>

	<trip id="Link_light_rail_52084410" type="rail_urban" depart="05:03:50" from="371527759#0.3598" to="170853848#2">
		<stop busStop="99610" until="05:04:00"/>
		<stop busStop="1108" until="05:06:00"/>
		<stop busStop="455" until="05:08:00"/>
		<stop busStop="501" until="05:10:00"/>
		<stop busStop="623" until="05:13:00"/>
		<stop busStop="99101" until="05:15:00"/>
	</trip>

	<trip id="43_49193096" type="bus" depart="05:04:21" from="428088886" to="623536799">
		<stop busStop="41904" until="05:04:31"/>
		<stop busStop="41908" until="05:06:16"/>
		<stop busStop="41965" until="05:07:18"/>
		<stop busStop="41970" until="05:08:08"/>
		<stop busStop="29270" until="05:10:00"/>
	</trip>

	<trip id="11_47580997" type="bus" depart="05:04:50" from="460423550#0" to="6415868#6">
		<stop busStop="1085" until="05:05:00"/>
		<stop busStop="1110" until="05:07:08"/>
		<stop busStop="1120" until="05:08:00"/>
		<stop busStop="1180" until="05:11:00"/>
		<stop busStop="1000" until="05:13:07"/>
		<stop busStop="11140" until="05:15:14"/>
		<stop busStop="11150" until="05:16:00"/>
	</trip>

	<trip id="49_49193712" type="bus" depart="05:04:53" from="428246433" to="428098983">
		<stop busStop="11180" until="05:05:03"/>
		<stop busStop="11190" until="05:05:29"/>
	</trip>

	<trip id="301_42017800" type="bus" depart="05:08:50" from="679642593#2" to="-428301128#1">
		<stop busStop="1215" until="05:09:00"/>
		<stop busStop="1230" until="05:09:47"/>
		<stop busStop="340" until="05:13:00"/>
		<stop busStop="361" until="05:14:55"/>
		<stop busStop="390" until="05:18:00"/>
	</trip>

	<trip id="36_49192404" type="bus" depart="05:08:50" from="gneE372" to="15257627#1">
		<stop busStop="1480" until="05:09:00"/>
		<stop busStop="1490" until="05:09:38"/>
	</trip>

	<trip id="10_41979571" type="bus" depart="05:09:07" from="-337668916#3" to="460423550#0">
		<stop busStop="29301" until="05:09:17"/>
		<stop busStop="29262" until="05:10:00"/>
		<stop busStop="29266" until="05:11:47"/>
		<stop busStop="13441" until="05:13:06"/>
		<stop busStop="11100" until="05:14:00"/>
		<stop busStop="1085" until="05:16:00"/>
	</trip>

	<trip id="132_47376313" type="bus" depart="05:09:50" from="-456673729#0" to="-456673729#0">
		<stop busStop="30635" until="05:10:00"/>
	</trip>

	<trip id="2_49192920" type="bus" depart="05:11:50" from="460421475#1" to="395714915">
		<stop busStop="2672" until="05:12:00"/>
		<stop busStop="2180" until="05:12:57"/>
		<stop busStop="2200" until="05:14:05"/>
		<stop busStop="2244" until="05:15:49"/>
		<stop busStop="2220" until="05:17:00"/>
		<stop busStop="400" until="05:19:09"/>
		<stop busStop="420" until="05:20:56"/>
		<stop busStop="430" until="05:22:16"/>
		<stop busStop="1270" until="05:26:00"/>
		<stop busStop="1280" until="05:26:56"/>
		<stop busStop="3150" until="05:28:00"/>
		<stop busStop="3151" until="05:28:48"/>
		<stop busStop="3152" until="05:29:57"/>
		<stop busStop="3153" until="05:31:08"/>
		<stop busStop="3154" until="05:31:42"/>
		<stop busStop="3155" until="05:33:00"/>
		<stop busStop="3156" until="05:34:05"/>
	</trip>

	<trip id="41_46931662" type="bus" depart="05:11:50" from="679642593#2" to="332223485#1">
		<stop busStop="1215" until="05:12:00"/>
		<stop busStop="480" until="05:15:00"/>
		<stop busStop="500" until="05:16:14"/>
		<stop busStop="1710" until="05:17:36"/>
		<stop busStop="844" until="05:20:00"/>
	</trip>

	<trip id="21_47580238" type="bus" depart="05:12:04" from="286940848#0" to="-456673729#0">
		<stop busStop="15204" until="05:12:14"/>
		<stop busStop="30635" until="05:14:00"/>
	</trip>

	<trip id="132_51702413" type="bus" depart="05:12:50" from="-532243339#2" to="-332972686">
		<stop busStop="433" until="05:13:00"/>
		<stop busStop="468" until="05:15:22"/>
		<stop busStop="490" until="05:18:02"/>
		<stop busStop="515" until="05:21:00"/>
		<stop busStop="30670" until="05:23:03"/>
	</trip>

	<trip id="150_49788204" type="bus" depart="05:12:50" from="679642593#2" to="-428301128#1">
		<stop busStop="1215" until="05:13:00"/>
		<stop busStop="1230" until="05:13:35"/>
		<stop busStop="340" until="05:16:00"/>
		<stop busStop="361" until="05:17:09"/>
		<stop busStop="390" until="05:19:00"/>
	</trip>

	<trip id="Link_light_rail_52084614" type="rail_urban" depart="05:12:50" from="164665655#4" to="144691574#6.2193">
		<stop busStop="99260" until="05:13:00"/>
		<stop busStop="621" until="05:15:00"/>
		<stop busStop="532" until="05:18:00"/>
		<stop busStop="565" until="05:20:00"/>
		<stop busStop="1121" until="05:22:00"/>
		<stop busStop="99603" until="05:24:00"/>
	</trip>

	<trip id="5_47580273" type="bus" depart="05:13:50" from="-456673729#0" to="52840083">
		<stop busStop="30635" until="05:14:00"/>
		<stop busStop="619" until="05:17:00"/>
		<stop busStop="531" until="05:18:47"/>
		<stop busStop="548" until="05:20:34"/>
		<stop busStop="570" until="05:22:30"/>
		<stop busStop="590" until="05:24:00"/>
		<stop busStop="600" until="05:25:10"/>
		<stop busStop="605" until="05:26:36"/>
		<stop busStop="6236" until="05:28:46"/>
		<stop busStop="6237" until="05:30:00"/>
	</trip>

	<trip id="7_49193315" type="bus" depart="05:14:50" from="gneE372" to="15257627#1">
		<stop busStop="1480" until="05:15:00"/>
		<stop busStop="1490" until="05:15:58"/>
	</trip>

	<trip id="36_49192357" type="bus" depart="05:15:33" from="gneE376" to="532243339#0">
		<stop busStop="1500" until="05:15:43"/>
		<stop busStop="1510" until="05:16:54"/>
		<stop busStop="1530" until="05:18:00"/>
		<stop busStop="1610" until="05:19:43"/>
		<stop busStop="538" until="05:21:27"/>
		<stop busStop="558" until="05:23:19"/>
		<stop busStop="575" until="05:25:00"/>
	</trip>

	<trip id="10_41979572" type="bus" depart="05:15:50" from="460423550#0" to="623536799">
		<stop busStop="1085" until="05:16:00"/>
		<stop busStop="1110" until="05:18:50"/>
		<stop busStop="1120" until="05:20:00"/>
		<stop busStop="1180" until="05:24:00"/>
		<stop busStop="11130" until="05:26:37"/>
		<stop busStop="11132" until="05:28:00"/>
		<stop busStop="13460" until="05:29:51"/>
		<stop busStop="29268" until="05:31:22"/>
		<stop busStop="29270" until="05:33:00"/>
	</trip>

	<trip id="Link_light_rail_52084411" type="rail_urban" depart="05:15:50" from="371527759#0.3598" to="170853848#2">
		<stop busStop="99610" until="05:16:00"/>
		<stop busStop="1108" until="05:18:00"/>
		<stop busStop="455" until="05:20:00"/>
		<stop busStop="501" until="05:22:00"/>
		<stop busStop="623" until="05:25:00"/>
		<stop busStop="99101" until="05:27:00"/>
	</trip>

	<trip id="49_49193570" type="bus" depart="05:17:43" from="-428314461" to="460423550#0">
		<stop busStop="11040" until="05:17:53"/>
		<stop busStop="11050" until="05:18:41"/>
		<stop busStop="11060" until="05:19:33"/>
		<stop busStop="11070" until="05:20:27"/>
		<stop busStop="11080" until="05:21:00"/>
		<stop busStop="11090" until="05:21:55"/>
		<stop busStop="11100" until="05:22:28"/>
		<stop busStop="1085" until="05:24:00"/>
	</trip>

	<trip id="3_51678525" type="bus" depart="05:17:50" from="-460423529#1" to="-460419023#1">
		<stop busStop="430" until="05:18:00"/>
		<stop busStop="480" until="05:22:13"/>
		<stop busStop="1560" until="05:24:00"/>
		<stop busStop="1570" until="05:25:26"/>
		<stop busStop="12900" until="05:27:46"/>
		<stop busStop="12910" until="05:29:00"/>
	</trip>

	<trip id="5_47580338" type="bus" depart="05:17:50" from="367069126" to="458058813#1">
		<stop busStop="6176" until="05:18:00"/>
		<stop busStop="7430" until="05:19:00"/>
	</trip>

	<trip id="D_Line_49195688" type="bus" depart="05:17:50" from="460421475#1" to="gneE126">
		<stop busStop="2672" until="05:18:00"/>
		<stop busStop="2200" until="05:20:00"/>
		<stop busStop="2220" until="05:22:48"/>
		<stop busStop="400" until="05:24:19"/>
		<stop busStop="420" until="05:25:35"/>
		<stop busStop="431" until="05:27:00"/>
		<stop busStop="468" until="05:29:48"/>
		<stop busStop="490" until="05:32:16"/>
		<stop busStop="1710" until="05:35:00"/>
	</trip>

	<trip id="4_49194553" type="bus" depart="05:18:44" from="-353690159#4" to="399134509#1">
		<stop busStop="12840" until="05:18:54"/>
		<stop busStop="12880" until="05:21:00"/>
		<stop busStop="12890" until="05:21:53"/>
		<stop busStop="1540" until="05:23:16"/>
		<stop busStop="1550" until="05:24:00"/>
		<stop busStop="538" until="05:25:29"/>
		<stop busStop="558" until="05:27:51"/>
		<stop busStop="575" until="05:30:00"/>
		<stop busStop="600" until="05:32:00"/>
	</trip>

	<trip id="21_47580460" type="bus" depart="05:18:50" from="458058813#1" to="-427914314">
		<stop busStop="7430" until="05:19:00"/>
		<stop busStop="400" until="05:20:57"/>
		<stop busStop="420" until="05:22:23"/>
		<stop busStop="431" until="05:24:00"/>
		<stop busStop="468" until="05:26:27"/>
		<stop busStop="490" until="05:28:36"/>
		<stop busStop="515" until="05:31:00"/>
		<stop busStop="15201" until="05:35:00"/>
	</trip>

	<trip id="70_49193047" type="bus" depart="05:19:43" from="-393047813#0" to="452330584">
		<stop busStop="10210" until="05:19:53"/>
		<stop busStop="10225" until="05:21:00"/>
		<stop busStop="10240" until="05:22:29"/>
		<stop busStop="940" until="05:23:42"/>
		<stop busStop="950" until="05:24:28"/>
		<stop busStop="430" until="05:26:37"/>
		<stop busStop="480" until="05:31:18"/>
		<stop busStop="500" until="05:33:31"/>
		<stop busStop="515" until="05:36:00"/>
	</trip>

	<trip id="124_47376704" type="bus" depart="05:19:50" from="621378229" to="-623761323">
		<stop busStop="400" until="05:20:00"/>
		<stop busStop="420" until="05:21:15"/>
		<stop busStop="433" until="05:23:00"/>
		<stop busStop="468" until="05:25:04"/>
		<stop busStop="490" until="05:27:25"/>
		<stop busStop="515" until="05:30:00"/>
		<stop busStop="21833" until="05:34:00"/>
	</trip>

	<trip id="550_44581242" type="bus" depart="05:19:50" from="428230590" to="332962230#1">
		<stop busStop="620" until="05:20:00"/>
		<stop busStop="628" until="05:20:59"/>
		<stop busStop="648" until="05:22:25"/>
		<stop busStop="670" until="05:23:57"/>
		<stop busStop="690" until="05:25:05"/>
		<stop busStop="1190" until="05:25:58"/>
		<stop busStop="11130" until="05:27:00"/>
	</trip>

	<trip id="62_47377388" type="bus" depart="05:19:50" from="-585843630#1" to="462696713#3">
		<stop busStop="18390" until="05:20:00"/>
		<stop busStop="18402" until="05:21:28"/>
		<stop busStop="6190" until="05:22:35"/>
		<stop busStop="420" until="05:24:50"/>
		<stop busStop="430" until="05:25:46"/>
		<stop busStop="480" until="05:29:01"/>
		<stop busStop="500" until="05:30:22"/>
		<stop busStop="625" until="05:32:00"/>
	</trip>

	<trip id="D_Line_49195793" type="bus" depart="05:19:50" from="gneE173" to="428248874#5">
		<stop busStop="1610" until="05:20:00"/>
		<stop busStop="538" until="05:21:30"/>
		<stop busStop="558" until="05:23:05"/>
		<stop busStop="578" until="05:25:00"/>
		<stop busStop="600" until="05:26:31"/>
		<stop busStop="605" until="05:27:56"/>
		<stop busStop="1690" until="05:29:07"/>
		<stop busStop="2330" until="05:32:09"/>
		<stop busStop="2360" until="05:34:03"/>
	</trip>

	<trip id="13_49193004" type="bus" depart="05:20:50" from="532243339#0" to="428248874#5">
		<stop busStop="575" until="05:21:00"/>
		<stop busStop="600" until="05:22:48"/>
		<stop busStop="605" until="05:24:07"/>
		<stop busStop="1690" until="05:25:12"/>
		<stop busStop="2320" until="05:26:58"/>
		<stop busStop="2330" until="05:28:00"/>
		<stop busStop="2360" until="05:29:59"/>
	</trip>

	<trip id="554_35024611" type="bus" depart="05:21:50" from="607173032#2" to="gneE372">
		<stop busStop="1920" until="05:22:00"/>
		<stop busStop="280" until="05:23:25"/>
		<stop busStop="320" until="05:25:00"/>
		<stop busStop="360" until="05:27:35"/>
		<stop busStop="375" until="05:29:00"/>
		<stop busStop="1480" until="05:31:10"/>
	</trip>

	<trip id="102_47801026" type="bus" depart="05:22:33" from="-370826209.583" to="332962230#1">
		<stop busStop="99267" until="05:22:43"/>
		<stop busStop="30635" until="05:23:25"/>
		<stop busStop="620" until="05:25:00"/>
		<stop busStop="640" until="05:27:07"/>
		<stop busStop="660" until="05:28:49"/>
		<stop busStop="690" until="05:31:00"/>
		<stop busStop="1190" until="05:32:51"/>
		<stop busStop="11130" until="05:35:00"/>
	</trip>

	<trip id="E_Line_49194346" type="bus" depart="05:23:24" from="367069126" to="452330584">
		<stop busStop="6176" until="05:23:34"/>
		<stop busStop="7430" until="05:24:32"/>
		<stop busStop="400" until="05:25:29"/>
		<stop busStop="420" until="05:26:12"/>
		<stop busStop="431" until="05:27:00"/>
		<stop busStop="468" until="05:29:27"/>
		<stop busStop="490" until="05:31:36"/>
		<stop busStop="515" until="05:34:00"/>
	</trip>

	<trip id="131_47376315" type="bus" depart="05:23:50" from="-456673729#0" to="-456673729#0">
		<stop busStop="30635" until="05:24:00"/>
	</trip>

	<trip id="28_47377183" type="bus" depart="05:23:50" from="-456673729#0" to="52840083">
		<stop busStop="30635" until="05:24:00"/>
		<stop busStop="619" until="05:26:00"/>
		<stop busStop="531" until="05:27:57"/>
		<stop busStop="548" until="05:29:53"/>
		<stop busStop="570" until="05:32:00"/>
		<stop busStop="590" until="05:34:18"/>
		<stop busStop="600" until="05:36:25"/>
		<stop busStop="605" until="05:39:00"/>
		<stop busStop="6236" until="05:39:53"/>
		<stop busStop="6237" until="05:40:23"/>
	</trip>

	<trip id="36_49192420" type="bus" depart="05:23:50" from="gneE372" to="15257627#1">
		<stop busStop="1480" until="05:24:00"/>
		<stop busStop="1490" until="05:24:38"/>
	</trip>

	<trip id="E_Line_49194224" type="bus" depart="05:23:50" from="gneE173" to="52840083">
		<stop busStop="1610" until="05:24:00"/>
		<stop busStop="538" until="05:25:30"/>
		<stop busStop="558" until="05:27:05"/>
		<stop busStop="578" until="05:29:00"/>
		<stop busStop="600" until="05:29:41"/>
		<stop busStop="605" until="05:30:20"/>
		<stop busStop="6236" until="05:31:19"/>
		<stop busStop="6237" until="05:31:53"/>
	</trip>

	<trip id="28_47377223" type="bus" depart="05:24:15" from="367069126" to="458058813#1">
		<stop busStop="6176" until="05:24:25"/>
		<stop busStop="7430" until="05:25:00"/>
	</trip>

	<trip id="120_47582991" type="bus" depart="05:24:41" from="gneE487" to="399134509#1">
		<stop busStop="1565" until="05:24:51"/>
		<stop busStop="548" until="05:26:00"/>
		<stop busStop="570" until="05:28:00"/>
		<stop busStop="590" until="05:29:34"/>
		<stop busStop="600" until="05:31:00"/>
	</trip>

	<trip id="132_47376351" type="bus" depart="05:24:50" from="458058813#1" to="-332972686">
		<stop busStop="7430" until="05:25:00"/>
		<stop busStop="400" until="05:27:31"/>
		<stop busStop="420" until="05:29:23"/>
		<stop busStop="433" until="05:32:00"/>
		<stop busStop="468" until="05:34:22"/>
		<stop busStop="490" until="05:37:02"/>
		<stop busStop="515" until="05:40:00"/>
		<stop busStop="30670" until="05:42:03"/>
	</trip>

	<trip id="40_47581391" type="bus" depart="05:24:50" from="gneE407" to="422748215#0">
		<stop busStop="619" until="05:25:00"/>
		<stop busStop="531" until="05:26:57"/>
		<stop busStop="548" until="05:28:53"/>
		<stop busStop="570" until="05:31:00"/>
		<stop busStop="590" until="05:32:35"/>
		<stop busStop="600" until="05:34:03"/>
		<stop busStop="18440" until="05:36:19"/>
		<stop busStop="26690" until="05:38:01"/>
		<stop busStop="26715" until="05:40:00"/>
	</trip>

	<trip id="Link_light_rail_52084615" type="rail_urban" depart="05:24:50" from="164665655#4" to="144691574#6.2193">
		<stop busStop="99260" until="05:25:00"/>
		<stop busStop="621" until="05:27:00"/>
		<stop busStop="532" until="05:30:00"/>
		<stop busStop="565" until="05:32:00"/>
		<stop busStop="1121" until="05:34:00"/>
		<stop busStop="99603" until="05:36:00"/>
	</trip>

	<trip id="124_47376821" type="bus" depart="05:25:42" from="623761323" to="-456673729#0">
		<stop busStop="21765" until="05:25:52"/>
		<stop busStop="30635" until="05:27:00"/>
	</trip>

	<trip id="554_35024626" type="bus" depart="05:25:50" from="428230590" to="512249710#1">
		<stop busStop="620" until="05:26:00"/>
		<stop busStop="628" until="05:26:53"/>
		<stop busStop="648" until="05:28:09"/>
		<stop busStop="670" until="05:29:31"/>
		<stop busStop="700" until="05:31:00"/>
		<stop busStop="720" until="05:31:55"/>
		<stop busStop="730" until="05:32:55"/>
		<stop busStop="18440" until="05:34:00"/>
	</trip>

	<trip id="70_49193813" type="bus" depart="05:25:50" from="gneE173" to="428341107">
		<stop busStop="1610" until="05:26:00"/>
		<stop busStop="538" until="05:27:39"/>
		<stop busStop="558" until="05:29:24"/>
		<stop busStop="575" until="05:31:00"/>
		<stop busStop="880" until="05:35:00"/>
		<stop busStop="900" until="05:37:20"/>
		<stop busStop="10280" until="05:39:00"/>
		<stop busStop="10305" until="05:40:23"/>
	</trip>

	<trip id="1_49195374" type="bus" depart="05:26:07" from="gneE376" to="428248874#5">
		<stop busStop="1500" until="05:26:17"/>
		<stop busStop="1510" until="05:27:11"/>
		<stop busStop="1530" until="05:28:00"/>
		<stop busStop="1610" until="05:29:57"/>
		<stop busStop="538" until="05:31:57"/>
		<stop busStop="558" until="05:34:04"/>
		<stop busStop="575" until="05:36:00"/>
		<stop busStop="600" until="05:38:03"/>
		<stop busStop="605" until="05:39:34"/>
		<stop busStop="1690" until="05:40:48"/>
		<stop busStop="2320" until="05:42:49"/>
		<stop busStop="2330" until="05:44:00"/>
		<stop busStop="2360" until="05:46:00"/>
	</trip>

	<trip id="33_47376521" type="bus" depart="05:26:33" from="-22759220#9" to="-456673731">
		<stop busStop="19390" until="05:26:43"/>
		<stop busStop="19410" until="05:27:21"/>
		<stop busStop="19420" until="05:28:04"/>
		<stop busStop="2244" until="05:29:23"/>
		<stop busStop="2220" until="05:30:00"/>
	</trip>

	<trip id="24_47376771" type="bus" depart="05:26:50" from="-456673729#0" to="22759220#1">
		<stop busStop="30635" until="05:27:00"/>
		<stop busStop="619" until="05:29:00"/>
		<stop busStop="531" until="05:30:37"/>
		<stop busStop="548" until="05:32:15"/>
		<stop busStop="570" until="05:34:00"/>
		<stop busStop="590" until="05:35:14"/>
		<stop busStop="600" until="05:36:22"/>
		<stop busStop="605" until="05:37:44"/>
		<stop busStop="1690" until="05:38:52"/>
		<stop busStop="2320" until="05:40:43"/>
		<stop busStop="19440" until="05:42:00"/>
		<stop busStop="19460" until="05:42:34"/>
		<stop busStop="19470" until="05:43:03"/>
		<stop busStop="19480" until="05:43:36"/>
	</trip>

	<trip id="550_44581425" type="bus" depart="05:26:50" from="679642593#2" to="462696719#1">
		<stop busStop="1215" until="05:27:00"/>
		<stop busStop="1230" until="05:27:49"/>
		<stop busStop="320" until="05:30:00"/>
		<stop busStop="360" until="05:31:56"/>
		<stop busStop="375" until="05:33:00"/>
	</trip>

	<trip id="60_47580624" type="bus" depart="05:26:58" from="-425646004#4" to="428098983">
		<stop busStop="27420" until="05:27:08"/>
		<stop busStop="41930" until="05:30:00"/>
		<stop busStop="41940" until="05:31:27"/>
		<stop busStop="41950" until="05:32:19"/>
		<stop busStop="13291" until="05:34:30"/>
		<stop busStop="13292" until="05:35:36"/>
		<stop busStop="41965" until="05:37:35"/>
		<stop busStop="41970" until="05:39:00"/>
		<stop busStop="11180" until="05:43:16"/>
		<stop busStop="11190" until="05:45:00"/>
	</trip>

	<trip id="4_49972477" type="bus" depart="05:27:17" from="gneE282" to="428342325">
		<stop busStop="538" until="05:27:27"/>
		<stop busStop="558" until="05:29:19"/>
		<stop busStop="575" until="05:31:00"/>
		<stop busStop="600" until="05:32:43"/>
		<stop busStop="605" until="05:33:58"/>
		<stop busStop="1690" until="05:35:00"/>
		<stop busStop="4200" until="05:35:40"/>
		<stop busStop="4220" until="05:36:30"/>
		<stop busStop="4230" until="05:37:12"/>
	</trip>

	<trip id="Link_light_rail_52084412" type="rail_urban" depart="05:27:50" from="371527759#0.3598" to="170853848#2">
		<stop busStop="99610" until="05:28:00"/>
		<stop busStop="1108" until="05:30:00"/>
		<stop busStop="455" until="05:32:00"/>
		<stop busStop="501" until="05:34:00"/>
		<stop busStop="623" until="05:37:00"/>
		<stop busStop="99101" until="05:39:00"/>
	</trip>

	<trip id="49_49193533" type="bus" depart="05:27:53" from="428246433" to="428098983">
		<stop busStop="11180" until="05:28:03"/>
		<stop busStop="11190" until="05:28:29"/>
	</trip>

	<trip id="49_49193747" type="bus" depart="05:28:50" from="465799092#2" to="428098983">
		<stop busStop="1180" until="05:29:00"/>
		<stop busStop="1000" until="05:31:33"/>
		<stop busStop="11140" until="05:34:05"/>
		<stop busStop="11150" until="05:35:00"/>
		<stop busStop="11180" until="05:36:39"/>
		<stop busStop="11190" until="05:37:16"/>
	</trip>

	<trip id="522_47621027" type="bus" depart="05:28:50" from="679642593#2" to="105899961#0">
		<stop busStop="1215" until="05:29:00"/>
		<stop busStop="1230" until="05:29:47"/>
		<stop busStop="340" until="05:33:00"/>
		<stop busStop="361" until="05:34:09"/>
		<stop busStop="390" until="05:36:00"/>
		<stop busStop="21850" until="05:40:00"/>
	</trip>

	<trip id="522_47621064" type="bus" depart="05:28:50" from="623761323" to="428248112#2">
		<stop busStop="21765" until="05:29:00"/>
		<stop busStop="620" until="05:32:00"/>
		<stop busStop="640" until="05:33:03"/>
		<stop busStop="660" until="05:33:54"/>
		<stop busStop="690" until="05:35:00"/>
		<stop busStop="1190" until="05:37:00"/>
	</trip>

	<trip id="106_47580715" type="bus" depart="05:29:50" from="gneE401" to="15257627#1">
		<stop busStop="1471" until="05:30:00"/>
		<stop busStop="1480" until="05:30:55"/>
		<stop busStop="1490" until="05:31:36"/>
	</trip>

	<trip id="12_49192187" type="bus" depart="05:29:50" from="191144465#2" to="395714915">
		<stop busStop="1580" until="05:30:00"/>
		<stop busStop="1590" until="05:31:09"/>
		<stop busStop="1300" until="05:34:00"/>
		<stop busStop="13291" until="05:35:43"/>
		<stop busStop="13292" until="05:36:52"/>
		<stop busStop="13293" until="05:38:00"/>
		<stop busStop="3156" until="05:39:02"/>
	</trip>

	<trip id="120_47582993" type="bus" depart="05:29:50" from="-621319687#1" to="gneE273">
		<stop busStop="420" until="05:30:00"/>
		<stop busStop="433" until="05:32:00"/>
		<stop busStop="468" until="05:33:36"/>
		<stop busStop="481" until="05:35:00"/>
	</trip>

	<trip id="150_49788092" type="bus" depart="05:29:50" from="-370826209.583" to="332962230#1">
		<stop busStop="99267" until="05:30:00"/>
		<stop busStop="30635" until="05:30:37"/>
		<stop busStop="620" until="05:32:00"/>
		<stop busStop="640" until="05:33:46"/>
		<stop busStop="660" until="05:35:11"/>
		<stop busStop="690" until="05:37:00"/>
		<stop busStop="1190" until="05:38:23"/>
		<stop busStop="11130" until="05:40:00"/>
	</trip>

	<trip id="27_47376601" type="bus" depart="05:29:50" from="-456673731" to="425646004#0">
		<stop busStop="2220" until="05:30:00"/>
		<stop busStop="400" until="05:31:40"/>
		<stop busStop="420" until="05:33:03"/>
		<stop busStop="433" until="05:35:00"/>
		<stop busStop="468" until="05:37:20"/>
		<stop busStop="490" until="05:40:00"/>
		<stop busStop="1340" until="05:42:00"/>
		<stop busStop="1350" until="05:43:02"/>
		<stop busStop="27480" until="05:43:20"/>
		<stop busStop="27500" until="05:44:08"/>
	</trip>

	<trip id="8_47378405" type="bus" depart="05:29:50" from="460421475#1" to="623536799">
		<stop busStop="2672" until="05:30:00"/>
		<stop busStop="2180" until="05:30:44"/>
		<stop busStop="2200" until="05:31:36"/>
		<stop busStop="2244" until="05:32:57"/>
		<stop busStop="2245" until="05:33:48"/>
		<stop busStop="2247" until="05:34:25"/>
		<stop busStop="2250" until="05:35:00"/>
		<stop busStop="2255" until="05:36:08"/>
		<stop busStop="2260" until="05:37:05"/>
		<stop busStop="2262" until="05:38:03"/>
		<stop busStop="29268" until="05:39:45"/>
		<stop busStop="29270" until="05:41:00"/>
	</trip>

	<trip id="36_49192373" type="bus" depart="05:30:33" from="gneE376" to="532243339#0">
		<stop busStop="1500" until="05:30:43"/>
		<stop busStop="1510" until="05:31:54"/>
		<stop busStop="1530" until="05:33:00"/>
		<stop busStop="1610" until="05:35:12"/>
		<stop busStop="538" until="05:37:27"/>
		<stop busStop="558" until="05:39:50"/>
		<stop busStop="575" until="05:42:00"/>
	</trip>

	<trip id="11_47581065" type="bus" depart="05:30:50" from="-6415868#6" to="460423550#0">
		<stop busStop="11080" until="05:31:00"/>
		<stop busStop="11090" until="05:32:14"/>
		<stop busStop="11100" until="05:32:57"/>
		<stop busStop="1085" until="05:35:00"/>
	</trip>

	<trip id="C_Line_49196174" type="bus" depart="05:31:20" from="gneE487" to="422748215#0">
		<stop busStop="1565" until="05:31:30"/>
		<stop busStop="539" until="05:32:20"/>
		<stop busStop="558" until="05:33:00"/>
		<stop busStop="578" until="05:35:02"/>
		<stop busStop="600" until="05:36:45"/>
		<stop busStop="18440" until="05:38:49"/>
		<stop busStop="26690" until="05:40:22"/>
		<stop busStop="26715" until="05:42:10"/>
	</trip>

	<trip id="545_35024717" type="bus" depart="05:32:31" from="22927964#3" to="105899961#0">
		<stop busStop="905" until="05:32:41"/>
		<stop busStop="940" until="05:33:18"/>
		<stop busStop="950" until="05:33:31"/>
		<stop busStop="760" until="05:34:00"/>
		<stop busStop="790" until="05:35:19"/>
		<stop busStop="810" until="05:36:11"/>
		<stop busStop="820" until="05:37:12"/>
		<stop busStop="844" until="05:39:00"/>
		<stop busStop="21850" until="05:42:00"/>
	</trip>

	<trip id="41_46931667" type="bus" depart="05:32:50" from="679642593#2" to="332223485#1">
		<stop busStop="1215" until="05:33:00"/>
		<stop busStop="480" until="05:36:00"/>
		<stop busStop="500" until="05:37:14"/>
		<stop busStop="1710" until="05:38:36"/>
		<stop busStop="844" until="05:41:00"/>
	</trip>

	<trip id="62_47377095" type="bus" depart="05:32:50" from="gneE402" to="585843630#4">
		<stop busStop="1530" until="05:33:00"/>
		<stop busStop="531" until="05:35:42"/>
		<stop busStop="548" until="05:37:46"/>
		<stop busStop="570" until="05:40:00"/>
		<stop busStop="590" until="05:41:09"/>
		<stop busStop="600" until="05:42:13"/>
		<stop busStop="6220" until="05:44:22"/>