<?xml version='1.0' encoding='utf-8'?>
<routes>
  <vType id="passenger" vClass="passenger" accel="3.2" color="yellow" decel="3.5" length="4" maxSpeed="200" lcStrategic="1" lcSpeedGain="1" lcCooperative="1" lcSpeedGainLookahead="5" minGap="1.5" cc1="0.9" cc2="4" cc3="-8" cc4="-0.1" cc5="0.1" cc6="11.44" cc7="0.25" cc8="3.5" cc9="1.5" />
  <trip id="0:5002to488@303:1155to488@276:40m" depart="18000.0" fromTaz="5002" toTaz="488" type="passenger" departLane="free" departSpeed="max" />
  <trip id="1:5008to431@304:692to431@291:22m" depart="18000.0" fromTaz="5008" toTaz="431" type="passenger" departLane="free" departSpeed="max" />
  <trip id="2:5010to432@300:150to432@281:20m" depart="18000.0" fromTaz="5010" toTaz="432" type="passenger" departLane="free" departSpeed="max" />
  <trip id="39404:545to5001@426:545to303@426:19m" depart="25710.0" fromTaz="545" toTaz="5001" type="passenger" departLane="free" departSpeed="max" />
  <trip id="39405:576to539@433:576to539@433:8m" depart="25710.0" fromTaz="576" toTaz="539" type="passenger" departLane="free" departSpeed="max" />
  <trip id="39406:5000to452@426:221to452@412:22m" depart="19710.0" fromTaz="5000" toTaz="452" type="passenger" departLane="free" departSpeed="max" />
  <trip id="39407:5000to473@431:98to473@411:22m" depart="19710.0" fromTaz="5000" toTaz="473" type="passenger" departLane="free" departSpeed="max" />
  <trip id="39408:5000to512@424:293to512@410:25m" depart="19710.0" fromTaz="5000" toTaz="512" type="passenger" departLane="free" departSpeed="max" />
  <trip id="39409:5000to515@430:2323to515@373:71m" depart="19710.0" fromTaz="5000" toTaz="515" type="passenger" departLane="free" departSpeed="max" />
  <trip id="39410:5000to542@432:189to542@412:29m" depart="19710.0" fromTaz="5000" toTaz="542" type="passenger" departLane="free" departSpeed="max" />
  <trip id="39411:5002to609@427:1349to609@387:28m" depart="19710.0" fromTaz="5002" toTaz="609" type="passenger" departLane="free" departSpeed="max" />
  <trip id="39412:5004to503@425:1507to503@396:32m" depart="19710.0" fromTaz="5004" toTaz="503" type="passenger" departLane="free" departSpeed="max" />

  <trip id="1" depart="20710.0" from="6344763#2" to="604185672#0" type="passenger" departLane="free" departSpeed="max" />
  <trip id="2" depart="20715.0" from="6344763#2" to="604185672#0" type="passenger" departLane="free" departSpeed="max" />
  <trip id="3" depart="20720.0" from="6344763#2" to="604185672#0" type="passenger" departLane="free" departSpeed="max" />
  <trip id="4" depart="20730.0" from="6344763#2" to="604185672#0" type="passenger" departLane="free" departSpeed="max" />
  <trip id="5" depart="20735.0" from="6344763#2" to="604185672#0" type="passenger" departLane="free" departSpeed="max" />

  <trip id="6" depart="22850.0" fromTaz="5000" to="604185672#0" type="passenger" departLane="free" departSpeed="max" />
  <trip id="7" depart="22860.0" fromTaz="5000" to="6439301#17" type="passenger" departLane="free" departSpeed="max" />
  <trip id="8" depart="22870.0" fromTaz="5000" to="6439301#17" type="passenger" departLane="free" departSpeed="max" />
</routes>