<additional>
    <edgeData id="2" file="new output/edge_data_output_hour.xml" freq="3600"/>
</additional>
