<additional>
	<edgeData id="2" file="new output/edge_data_output_min.xml" freq="60"/>
</additional>
